L24/1726535/_ATERRAMENTO.dss
! Aterramento do neutro (no 4) dos secundarios de BT
! Reactor de 0.5 ohm entre o no 4 e a terra (no 0).
New Reactor.NEUTRO_node_1036829866 phases=1 bus1=node_1036829866.4 bus2=node_1036829866.0 R=0.5 X=0
New Reactor.NEUTRO_node_1043180133 phases=1 bus1=node_1043180133.4 bus2=node_1043180133.0 R=0.5 X=0
New Reactor.NEUTRO_node_1043257454 phases=1 bus1=node_1043257454.4 bus2=node_1043257454.0 R=0.5 X=0
New Reactor.NEUTRO_node_1051244588 phases=1 bus1=node_1051244588.4 bus2=node_1051244588.0 R=0.5 X=0
New Reactor.NEUTRO_node_1078871941 phases=1 bus1=node_1078871941.4 bus2=node_1078871941.0 R=0.5 X=0
New Reactor.NEUTRO_node_1078872058 phases=1 bus1=node_1078872058.4 bus2=node_1078872058.0 R=0.5 X=0
New Reactor.NEUTRO_node_1078872659 phases=1 bus1=node_1078872659.4 bus2=node_1078872659.0 R=0.5 X=0
New Reactor.NEUTRO_node_1104468529 phases=1 bus1=node_1104468529.4 bus2=node_1104468529.0 R=0.5 X=0
New Reactor.NEUTRO_node_1114323569 phases=1 bus1=node_1114323569.4 bus2=node_1114323569.0 R=0.5 X=0
New Reactor.NEUTRO_node_1183052860 phases=1 bus1=node_1183052860.4 bus2=node_1183052860.0 R=0.5 X=0
New Reactor.NEUTRO_node_1219423074 phases=1 bus1=node_1219423074.4 bus2=node_1219423074.0 R=0.5 X=0
New Reactor.NEUTRO_node_1219423338 phases=1 bus1=node_1219423338.4 bus2=node_1219423338.0 R=0.5 X=0
New Reactor.NEUTRO_node_1287573898 phases=1 bus1=node_1287573898.4 bus2=node_1287573898.0 R=0.5 X=0
New Reactor.NEUTRO_node_1340149002 phases=1 bus1=node_1340149002.4 bus2=node_1340149002.0 R=0.5 X=0
New Reactor.NEUTRO_node_1633648425 phases=1 bus1=node_1633648425.4 bus2=node_1633648425.0 R=0.5 X=0
New Reactor.NEUTRO_node_1654512622 phases=1 bus1=node_1654512622.4 bus2=node_1654512622.0 R=0.5 X=0
New Reactor.NEUTRO_node_1683145035 phases=1 bus1=node_1683145035.4 bus2=node_1683145035.0 R=0.5 X=0
New Reactor.NEUTRO_node_1912702331 phases=1 bus1=node_1912702331.4 bus2=node_1912702331.0 R=0.5 X=0
New Reactor.NEUTRO_node_1973234799 phases=1 bus1=node_1973234799.4 bus2=node_1973234799.0 R=0.5 X=0
New Reactor.NEUTRO_node_2008711880 phases=1 bus1=node_2008711880.4 bus2=node_2008711880.0 R=0.5 X=0
New Reactor.NEUTRO_node_2038538143 phases=1 bus1=node_2038538143.4 bus2=node_2038538143.0 R=0.5 X=0
New Reactor.NEUTRO_node_2056452895 phases=1 bus1=node_2056452895.4 bus2=node_2056452895.0 R=0.5 X=0
New Reactor.NEUTRO_node_2084831525 phases=1 bus1=node_2084831525.4 bus2=node_2084831525.0 R=0.5 X=0
New Reactor.NEUTRO_node_2137862567 phases=1 bus1=node_2137862567.4 bus2=node_2137862567.0 R=0.5 X=0
New Reactor.NEUTRO_node_2139915877 phases=1 bus1=node_2139915877.4 bus2=node_2139915877.0 R=0.5 X=0
New Reactor.NEUTRO_node_2139915898 phases=1 bus1=node_2139915898.4 bus2=node_2139915898.0 R=0.5 X=0
New Reactor.NEUTRO_node_2139915940 phases=1 bus1=node_2139915940.4 bus2=node_2139915940.0 R=0.5 X=0
New Reactor.NEUTRO_node_2139916485 phases=1 bus1=node_2139916485.4 bus2=node_2139916485.0 R=0.5 X=0
New Reactor.NEUTRO_node_2139916730 phases=1 bus1=node_2139916730.4 bus2=node_2139916730.0 R=0.5 X=0
New Reactor.NEUTRO_node_2139916813 phases=1 bus1=node_2139916813.4 bus2=node_2139916813.0 R=0.5 X=0
New Reactor.NEUTRO_node_2139917036 phases=1 bus1=node_2139917036.4 bus2=node_2139917036.0 R=0.5 X=0
New Reactor.NEUTRO_node_2139917369 phases=1 bus1=node_2139917369.4 bus2=node_2139917369.0 R=0.5 X=0
New Reactor.NEUTRO_node_2139917396 phases=1 bus1=node_2139917396.4 bus2=node_2139917396.0 R=0.5 X=0
New Reactor.NEUTRO_node_2176834847 phases=1 bus1=node_2176834847.4 bus2=node_2176834847.0 R=0.5 X=0
New Reactor.NEUTRO_node_2178775833 phases=1 bus1=node_2178775833.4 bus2=node_2178775833.0 R=0.5 X=0
New Reactor.NEUTRO_node_2348251206 phases=1 bus1=node_2348251206.4 bus2=node_2348251206.0 R=0.5 X=0
New Reactor.NEUTRO_node_2362949745 phases=1 bus1=node_2362949745.4 bus2=node_2362949745.0 R=0.5 X=0
New Reactor.NEUTRO_node_2371176971 phases=1 bus1=node_2371176971.4 bus2=node_2371176971.0 R=0.5 X=0
New Reactor.NEUTRO_node_2383380678 phases=1 bus1=node_2383380678.4 bus2=node_2383380678.0 R=0.5 X=0
New Reactor.NEUTRO_node_2455854691 phases=1 bus1=node_2455854691.4 bus2=node_2455854691.0 R=0.5 X=0
New Reactor.NEUTRO_node_2503728394 phases=1 bus1=node_2503728394.4 bus2=node_2503728394.0 R=0.5 X=0
New Reactor.NEUTRO_node_2513441413 phases=1 bus1=node_2513441413.4 bus2=node_2513441413.0 R=0.5 X=0
New Reactor.NEUTRO_node_2518148100 phases=1 bus1=node_2518148100.4 bus2=node_2518148100.0 R=0.5 X=0
New Reactor.NEUTRO_node_2520386392 phases=1 bus1=node_2520386392.4 bus2=node_2520386392.0 R=0.5 X=0
New Reactor.NEUTRO_node_2520386422 phases=1 bus1=node_2520386422.4 bus2=node_2520386422.0 R=0.5 X=0
New Reactor.NEUTRO_node_2520386465 phases=1 bus1=node_2520386465.4 bus2=node_2520386465.0 R=0.5 X=0
New Reactor.NEUTRO_node_2526005666 phases=1 bus1=node_2526005666.4 bus2=node_2526005666.0 R=0.5 X=0
New Reactor.NEUTRO_node_2526005812 phases=1 bus1=node_2526005812.4 bus2=node_2526005812.0 R=0.5 X=0
New Reactor.NEUTRO_node_2538926586 phases=1 bus1=node_2538926586.4 bus2=node_2538926586.0 R=0.5 X=0
New Reactor.NEUTRO_node_2562775259 phases=1 bus1=node_2562775259.4 bus2=node_2562775259.0 R=0.5 X=0
New Reactor.NEUTRO_node_2562775404 phases=1 bus1=node_2562775404.4 bus2=node_2562775404.0 R=0.5 X=0
New Reactor.NEUTRO_node_2717877254 phases=1 bus1=node_2717877254.4 bus2=node_2717877254.0 R=0.5 X=0
New Reactor.NEUTRO_node_2748984715 phases=1 bus1=node_2748984715.4 bus2=node_2748984715.0 R=0.5 X=0
New Reactor.NEUTRO_node_2760947050 phases=1 bus1=node_2760947050.4 bus2=node_2760947050.0 R=0.5 X=0
New Reactor.NEUTRO_node_2789081970 phases=1 bus1=node_2789081970.4 bus2=node_2789081970.0 R=0.5 X=0
New Reactor.NEUTRO_node_2822649298 phases=1 bus1=node_2822649298.4 bus2=node_2822649298.0 R=0.5 X=0
New Reactor.NEUTRO_node_2834181748 phases=1 bus1=node_2834181748.4 bus2=node_2834181748.0 R=0.5 X=0
New Reactor.NEUTRO_node_2855420096 phases=1 bus1=node_2855420096.4 bus2=node_2855420096.0 R=0.5 X=0
New Reactor.NEUTRO_node_2879535175 phases=1 bus1=node_2879535175.4 bus2=node_2879535175.0 R=0.5 X=0
New Reactor.NEUTRO_node_2879535260 phases=1 bus1=node_2879535260.4 bus2=node_2879535260.0 R=0.5 X=0
New Reactor.NEUTRO_node_410938463 phases=1 bus1=node_410938463.4 bus2=node_410938463.0 R=0.5 X=0
New Reactor.NEUTRO_node_411215413 phases=1 bus1=node_411215413.4 bus2=node_411215413.0 R=0.5 X=0
New Reactor.NEUTRO_node_411215422 phases=1 bus1=node_411215422.4 bus2=node_411215422.0 R=0.5 X=0
New Reactor.NEUTRO_node_411215431 phases=1 bus1=node_411215431.4 bus2=node_411215431.0 R=0.5 X=0
New Reactor.NEUTRO_node_411215437 phases=1 bus1=node_411215437.4 bus2=node_411215437.0 R=0.5 X=0
New Reactor.NEUTRO_node_411215452 phases=1 bus1=node_411215452.4 bus2=node_411215452.0 R=0.5 X=0
New Reactor.NEUTRO_node_411215464 phases=1 bus1=node_411215464.4 bus2=node_411215464.0 R=0.5 X=0
New Reactor.NEUTRO_node_411215467 phases=1 bus1=node_411215467.4 bus2=node_411215467.0 R=0.5 X=0
New Reactor.NEUTRO_node_411215638 phases=1 bus1=node_411215638.4 bus2=node_411215638.0 R=0.5 X=0
New Reactor.NEUTRO_node_411215644 phases=1 bus1=node_411215644.4 bus2=node_411215644.0 R=0.5 X=0
New Reactor.NEUTRO_node_411215650 phases=1 bus1=node_411215650.4 bus2=node_411215650.0 R=0.5 X=0
New Reactor.NEUTRO_node_411215782 phases=1 bus1=node_411215782.4 bus2=node_411215782.0 R=0.5 X=0
New Reactor.NEUTRO_node_411215785 phases=1 bus1=node_411215785.4 bus2=node_411215785.0 R=0.5 X=0
New Reactor.NEUTRO_node_411215803 phases=1 bus1=node_411215803.4 bus2=node_411215803.0 R=0.5 X=0
New Reactor.NEUTRO_node_411215809 phases=1 bus1=node_411215809.4 bus2=node_411215809.0 R=0.5 X=0
New Reactor.NEUTRO_node_411215812 phases=1 bus1=node_411215812.4 bus2=node_411215812.0 R=0.5 X=0
New Reactor.NEUTRO_node_411215815 phases=1 bus1=node_411215815.4 bus2=node_411215815.0 R=0.5 X=0
New Reactor.NEUTRO_node_411215818 phases=1 bus1=node_411215818.4 bus2=node_411215818.0 R=0.5 X=0
New Reactor.NEUTRO_node_411215830 phases=1 bus1=node_411215830.4 bus2=node_411215830.0 R=0.5 X=0
New Reactor.NEUTRO_node_411215833 phases=1 bus1=node_411215833.4 bus2=node_411215833.0 R=0.5 X=0
New Reactor.NEUTRO_node_411215836 phases=1 bus1=node_411215836.4 bus2=node_411215836.0 R=0.5 X=0
New Reactor.NEUTRO_node_411215905 phases=1 bus1=node_411215905.4 bus2=node_411215905.0 R=0.5 X=0
New Reactor.NEUTRO_node_411215908 phases=1 bus1=node_411215908.4 bus2=node_411215908.0 R=0.5 X=0
New Reactor.NEUTRO_node_411215911 phases=1 bus1=node_411215911.4 bus2=node_411215911.0 R=0.5 X=0
New Reactor.NEUTRO_node_411215914 phases=1 bus1=node_411215914.4 bus2=node_411215914.0 R=0.5 X=0
New Reactor.NEUTRO_node_411215920 phases=1 bus1=node_411215920.4 bus2=node_411215920.0 R=0.5 X=0
New Reactor.NEUTRO_node_411215923 phases=1 bus1=node_411215923.4 bus2=node_411215923.0 R=0.5 X=0
New Reactor.NEUTRO_node_411215926 phases=1 bus1=node_411215926.4 bus2=node_411215926.0 R=0.5 X=0
New Reactor.NEUTRO_node_411215929 phases=1 bus1=node_411215929.4 bus2=node_411215929.0 R=0.5 X=0
New Reactor.NEUTRO_node_411215932 phases=1 bus1=node_411215932.4 bus2=node_411215932.0 R=0.5 X=0
New Reactor.NEUTRO_node_411215938 phases=1 bus1=node_411215938.4 bus2=node_411215938.0 R=0.5 X=0
New Reactor.NEUTRO_node_411215941 phases=1 bus1=node_411215941.4 bus2=node_411215941.0 R=0.5 X=0
New Reactor.NEUTRO_node_411217561 phases=1 bus1=node_411217561.4 bus2=node_411217561.0 R=0.5 X=0
New Reactor.NEUTRO_node_411217651 phases=1 bus1=node_411217651.4 bus2=node_411217651.0 R=0.5 X=0
New Reactor.NEUTRO_node_411217726 phases=1 bus1=node_411217726.4 bus2=node_411217726.0 R=0.5 X=0
New Reactor.NEUTRO_node_411217732 phases=1 bus1=node_411217732.4 bus2=node_411217732.0 R=0.5 X=0
New Reactor.NEUTRO_node_411217738 phases=1 bus1=node_411217738.4 bus2=node_411217738.0 R=0.5 X=0
New Reactor.NEUTRO_node_411217741 phases=1 bus1=node_411217741.4 bus2=node_411217741.0 R=0.5 X=0
New Reactor.NEUTRO_node_411217744 phases=1 bus1=node_411217744.4 bus2=node_411217744.0 R=0.5 X=0
New Reactor.NEUTRO_node_411217747 phases=1 bus1=node_411217747.4 bus2=node_411217747.0 R=0.5 X=0
New Reactor.NEUTRO_node_411218305 phases=1 bus1=node_411218305.4 bus2=node_411218305.0 R=0.5 X=0
New Reactor.NEUTRO_node_411218308 phases=1 bus1=node_411218308.4 bus2=node_411218308.0 R=0.5 X=0
New Reactor.NEUTRO_node_411218311 phases=1 bus1=node_411218311.4 bus2=node_411218311.0 R=0.5 X=0
New Reactor.NEUTRO_node_411218317 phases=1 bus1=node_411218317.4 bus2=node_411218317.0 R=0.5 X=0
New Reactor.NEUTRO_node_411218323 phases=1 bus1=node_411218323.4 bus2=node_411218323.0 R=0.5 X=0
New Reactor.NEUTRO_node_411218416 phases=1 bus1=node_411218416.4 bus2=node_411218416.0 R=0.5 X=0
New Reactor.NEUTRO_node_411218824 phases=1 bus1=node_411218824.4 bus2=node_411218824.0 R=0.5 X=0
New Reactor.NEUTRO_node_411218842 phases=1 bus1=node_411218842.4 bus2=node_411218842.0 R=0.5 X=0
New Reactor.NEUTRO_node_411218848 phases=1 bus1=node_411218848.4 bus2=node_411218848.0 R=0.5 X=0
New Reactor.NEUTRO_node_411250334 phases=1 bus1=node_411250334.4 bus2=node_411250334.0 R=0.5 X=0
New Reactor.NEUTRO_node_411250448 phases=1 bus1=node_411250448.4 bus2=node_411250448.0 R=0.5 X=0
New Reactor.NEUTRO_node_411250667 phases=1 bus1=node_411250667.4 bus2=node_411250667.0 R=0.5 X=0
New Reactor.NEUTRO_node_411250682 phases=1 bus1=node_411250682.4 bus2=node_411250682.0 R=0.5 X=0
New Reactor.NEUTRO_node_411285651 phases=1 bus1=node_411285651.4 bus2=node_411285651.0 R=0.5 X=0
New Reactor.NEUTRO_node_411469477 phases=1 bus1=node_411469477.4 bus2=node_411469477.0 R=0.5 X=0
New Reactor.NEUTRO_node_411469741 phases=1 bus1=node_411469741.4 bus2=node_411469741.0 R=0.5 X=0
New Reactor.NEUTRO_node_411471148 phases=1 bus1=node_411471148.4 bus2=node_411471148.0 R=0.5 X=0
New Reactor.NEUTRO_node_411471217 phases=1 bus1=node_411471217.4 bus2=node_411471217.0 R=0.5 X=0
New Reactor.NEUTRO_node_411503087 phases=1 bus1=node_411503087.4 bus2=node_411503087.0 R=0.5 X=0
New Reactor.NEUTRO_node_411503204 phases=1 bus1=node_411503204.4 bus2=node_411503204.0 R=0.5 X=0
New Reactor.NEUTRO_node_411505871 phases=1 bus1=node_411505871.4 bus2=node_411505871.0 R=0.5 X=0
New Reactor.NEUTRO_node_411535244 phases=1 bus1=node_411535244.4 bus2=node_411535244.0 R=0.5 X=0
New Reactor.NEUTRO_node_411580451 phases=1 bus1=node_411580451.4 bus2=node_411580451.0 R=0.5 X=0
New Reactor.NEUTRO_node_411734759 phases=1 bus1=node_411734759.4 bus2=node_411734759.0 R=0.5 X=0
New Reactor.NEUTRO_node_411769779 phases=1 bus1=node_411769779.4 bus2=node_411769779.0 R=0.5 X=0
New Reactor.NEUTRO_node_411771984 phases=1 bus1=node_411771984.4 bus2=node_411771984.0 R=0.5 X=0
New Reactor.NEUTRO_node_411772083 phases=1 bus1=node_411772083.4 bus2=node_411772083.0 R=0.5 X=0
New Reactor.NEUTRO_node_411795107 phases=1 bus1=node_411795107.4 bus2=node_411795107.0 R=0.5 X=0
New Reactor.NEUTRO_node_411816243 phases=1 bus1=node_411816243.4 bus2=node_411816243.0 R=0.5 X=0
New Reactor.NEUTRO_node_411818430 phases=1 bus1=node_411818430.4 bus2=node_411818430.0 R=0.5 X=0
New Reactor.NEUTRO_node_411818496 phases=1 bus1=node_411818496.4 bus2=node_411818496.0 R=0.5 X=0
New Reactor.NEUTRO_node_411848589 phases=1 bus1=node_411848589.4 bus2=node_411848589.0 R=0.5 X=0
New Reactor.NEUTRO_node_411873845 phases=1 bus1=node_411873845.4 bus2=node_411873845.0 R=0.5 X=0
New Reactor.NEUTRO_node_411995709 phases=1 bus1=node_411995709.4 bus2=node_411995709.0 R=0.5 X=0
New Reactor.NEUTRO_node_412040604 phases=1 bus1=node_412040604.4 bus2=node_412040604.0 R=0.5 X=0
New Reactor.NEUTRO_node_412041321 phases=1 bus1=node_412041321.4 bus2=node_412041321.0 R=0.5 X=0
New Reactor.NEUTRO_node_412042755 phases=1 bus1=node_412042755.4 bus2=node_412042755.0 R=0.5 X=0
New Reactor.NEUTRO_node_412062898 phases=1 bus1=node_412062898.4 bus2=node_412062898.0 R=0.5 X=0
New Reactor.NEUTRO_node_412250350 phases=1 bus1=node_412250350.4 bus2=node_412250350.0 R=0.5 X=0
New Reactor.NEUTRO_node_412250356 phases=1 bus1=node_412250356.4 bus2=node_412250356.0 R=0.5 X=0
New Reactor.NEUTRO_node_412250773 phases=1 bus1=node_412250773.4 bus2=node_412250773.0 R=0.5 X=0
New Reactor.NEUTRO_node_412304849 phases=1 bus1=node_412304849.4 bus2=node_412304849.0 R=0.5 X=0
New Reactor.NEUTRO_node_412304936 phases=1 bus1=node_412304936.4 bus2=node_412304936.0 R=0.5 X=0
New Reactor.NEUTRO_node_412310718 phases=1 bus1=node_412310718.4 bus2=node_412310718.0 R=0.5 X=0
New Reactor.NEUTRO_node_412311783 phases=1 bus1=node_412311783.4 bus2=node_412311783.0 R=0.5 X=0
New Reactor.NEUTRO_node_412328137 phases=1 bus1=node_412328137.4 bus2=node_412328137.0 R=0.5 X=0
New Reactor.NEUTRO_node_412329109 phases=1 bus1=node_412329109.4 bus2=node_412329109.0 R=0.5 X=0
New Reactor.NEUTRO_node_412329112 phases=1 bus1=node_412329112.4 bus2=node_412329112.0 R=0.5 X=0
New Reactor.NEUTRO_node_412329598 phases=1 bus1=node_412329598.4 bus2=node_412329598.0 R=0.5 X=0
New Reactor.NEUTRO_node_412329601 phases=1 bus1=node_412329601.4 bus2=node_412329601.0 R=0.5 X=0
New Reactor.NEUTRO_node_412329817 phases=1 bus1=node_412329817.4 bus2=node_412329817.0 R=0.5 X=0
New Reactor.NEUTRO_node_412330333 phases=1 bus1=node_412330333.4 bus2=node_412330333.0 R=0.5 X=0
New Reactor.NEUTRO_node_412330336 phases=1 bus1=node_412330336.4 bus2=node_412330336.0 R=0.5 X=0
New Reactor.NEUTRO_node_412330870 phases=1 bus1=node_412330870.4 bus2=node_412330870.0 R=0.5 X=0
New Reactor.NEUTRO_node_412330873 phases=1 bus1=node_412330873.4 bus2=node_412330873.0 R=0.5 X=0
New Reactor.NEUTRO_node_412357144 phases=1 bus1=node_412357144.4 bus2=node_412357144.0 R=0.5 X=0
New Reactor.NEUTRO_node_412357150 phases=1 bus1=node_412357150.4 bus2=node_412357150.0 R=0.5 X=0
New Reactor.NEUTRO_node_412357432 phases=1 bus1=node_412357432.4 bus2=node_412357432.0 R=0.5 X=0
New Reactor.NEUTRO_node_412357513 phases=1 bus1=node_412357513.4 bus2=node_412357513.0 R=0.5 X=0
New Reactor.NEUTRO_node_412357666 phases=1 bus1=node_412357666.4 bus2=node_412357666.0 R=0.5 X=0
New Reactor.NEUTRO_node_412359103 phases=1 bus1=node_412359103.4 bus2=node_412359103.0 R=0.5 X=0
New Reactor.NEUTRO_node_412359973 phases=1 bus1=node_412359973.4 bus2=node_412359973.0 R=0.5 X=0
New Reactor.NEUTRO_node_412360258 phases=1 bus1=node_412360258.4 bus2=node_412360258.0 R=0.5 X=0
New Reactor.NEUTRO_node_412360678 phases=1 bus1=node_412360678.4 bus2=node_412360678.0 R=0.5 X=0
New Reactor.NEUTRO_node_412381697 phases=1 bus1=node_412381697.4 bus2=node_412381697.0 R=0.5 X=0
New Reactor.NEUTRO_node_412382069 phases=1 bus1=node_412382069.4 bus2=node_412382069.0 R=0.5 X=0
New Reactor.NEUTRO_node_412382081 phases=1 bus1=node_412382081.4 bus2=node_412382081.0 R=0.5 X=0
New Reactor.NEUTRO_node_412396136 phases=1 bus1=node_412396136.4 bus2=node_412396136.0 R=0.5 X=0
New Reactor.NEUTRO_node_412398401 phases=1 bus1=node_412398401.4 bus2=node_412398401.0 R=0.5 X=0
New Reactor.NEUTRO_node_412398824 phases=1 bus1=node_412398824.4 bus2=node_412398824.0 R=0.5 X=0
New Reactor.NEUTRO_node_412398857 phases=1 bus1=node_412398857.4 bus2=node_412398857.0 R=0.5 X=0
New Reactor.NEUTRO_node_412399541 phases=1 bus1=node_412399541.4 bus2=node_412399541.0 R=0.5 X=0
New Reactor.NEUTRO_node_412399601 phases=1 bus1=node_412399601.4 bus2=node_412399601.0 R=0.5 X=0
New Reactor.NEUTRO_node_412532845 phases=1 bus1=node_412532845.4 bus2=node_412532845.0 R=0.5 X=0
New Reactor.NEUTRO_node_413012183 phases=1 bus1=node_413012183.4 bus2=node_413012183.0 R=0.5 X=0
New Reactor.NEUTRO_node_413122342 phases=1 bus1=node_413122342.4 bus2=node_413122342.0 R=0.5 X=0
New Reactor.NEUTRO_node_413125465 phases=1 bus1=node_413125465.4 bus2=node_413125465.0 R=0.5 X=0
New Reactor.NEUTRO_node_413180286 phases=1 bus1=node_413180286.4 bus2=node_413180286.0 R=0.5 X=0
New Reactor.NEUTRO_node_413203796 phases=1 bus1=node_413203796.4 bus2=node_413203796.0 R=0.5 X=0
New Reactor.NEUTRO_node_413204309 phases=1 bus1=node_413204309.4 bus2=node_413204309.0 R=0.5 X=0
New Reactor.NEUTRO_node_413204318 phases=1 bus1=node_413204318.4 bus2=node_413204318.0 R=0.5 X=0
New Reactor.NEUTRO_node_413204327 phases=1 bus1=node_413204327.4 bus2=node_413204327.0 R=0.5 X=0
New Reactor.NEUTRO_node_413204453 phases=1 bus1=node_413204453.4 bus2=node_413204453.0 R=0.5 X=0
New Reactor.NEUTRO_node_413204462 phases=1 bus1=node_413204462.4 bus2=node_413204462.0 R=0.5 X=0
New Reactor.NEUTRO_node_413204471 phases=1 bus1=node_413204471.4 bus2=node_413204471.0 R=0.5 X=0
New Reactor.NEUTRO_node_413204474 phases=1 bus1=node_413204474.4 bus2=node_413204474.0 R=0.5 X=0
New Reactor.NEUTRO_node_413204588 phases=1 bus1=node_413204588.4 bus2=node_413204588.0 R=0.5 X=0
New Reactor.NEUTRO_node_413204591 phases=1 bus1=node_413204591.4 bus2=node_413204591.0 R=0.5 X=0
New Reactor.NEUTRO_node_418097459 phases=1 bus1=node_418097459.4 bus2=node_418097459.0 R=0.5 X=0
New Reactor.NEUTRO_node_418097462 phases=1 bus1=node_418097462.4 bus2=node_418097462.0 R=0.5 X=0
New Reactor.NEUTRO_node_418097510 phases=1 bus1=node_418097510.4 bus2=node_418097510.0 R=0.5 X=0
New Reactor.NEUTRO_node_418097696 phases=1 bus1=node_418097696.4 bus2=node_418097696.0 R=0.5 X=0
New Reactor.NEUTRO_node_418097702 phases=1 bus1=node_418097702.4 bus2=node_418097702.0 R=0.5 X=0
New Reactor.NEUTRO_node_418104399 phases=1 bus1=node_418104399.4 bus2=node_418104399.0 R=0.5 X=0
New Reactor.NEUTRO_node_418106043 phases=1 bus1=node_418106043.4 bus2=node_418106043.0 R=0.5 X=0
New Reactor.NEUTRO_node_418106055 phases=1 bus1=node_418106055.4 bus2=node_418106055.0 R=0.5 X=0
New Reactor.NEUTRO_node_418106061 phases=1 bus1=node_418106061.4 bus2=node_418106061.0 R=0.5 X=0
New Reactor.NEUTRO_node_418111945 phases=1 bus1=node_418111945.4 bus2=node_418111945.0 R=0.5 X=0
New Reactor.NEUTRO_node_418111948 phases=1 bus1=node_418111948.4 bus2=node_418111948.0 R=0.5 X=0
New Reactor.NEUTRO_node_418111984 phases=1 bus1=node_418111984.4 bus2=node_418111984.0 R=0.5 X=0
New Reactor.NEUTRO_node_418113220 phases=1 bus1=node_418113220.4 bus2=node_418113220.0 R=0.5 X=0
New Reactor.NEUTRO_node_418113241 phases=1 bus1=node_418113241.4 bus2=node_418113241.0 R=0.5 X=0
New Reactor.NEUTRO_node_418113247 phases=1 bus1=node_418113247.4 bus2=node_418113247.0 R=0.5 X=0
New Reactor.NEUTRO_node_418114216 phases=1 bus1=node_418114216.4 bus2=node_418114216.0 R=0.5 X=0
New Reactor.NEUTRO_node_418119794 phases=1 bus1=node_418119794.4 bus2=node_418119794.0 R=0.5 X=0
New Reactor.NEUTRO_node_418119893 phases=1 bus1=node_418119893.4 bus2=node_418119893.0 R=0.5 X=0
New Reactor.NEUTRO_node_418119899 phases=1 bus1=node_418119899.4 bus2=node_418119899.0 R=0.5 X=0
New Reactor.NEUTRO_node_418119917 phases=1 bus1=node_418119917.4 bus2=node_418119917.0 R=0.5 X=0
New Reactor.NEUTRO_node_418119938 phases=1 bus1=node_418119938.4 bus2=node_418119938.0 R=0.5 X=0
New Reactor.NEUTRO_node_418128678 phases=1 bus1=node_418128678.4 bus2=node_418128678.0 R=0.5 X=0
New Reactor.NEUTRO_node_418460067 phases=1 bus1=node_418460067.4 bus2=node_418460067.0 R=0.5 X=0
New Reactor.NEUTRO_node_418461939 phases=1 bus1=node_418461939.4 bus2=node_418461939.0 R=0.5 X=0
New Reactor.NEUTRO_node_418621167 phases=1 bus1=node_418621167.4 bus2=node_418621167.0 R=0.5 X=0
New Reactor.NEUTRO_node_418621956 phases=1 bus1=node_418621956.4 bus2=node_418621956.0 R=0.5 X=0
New Reactor.NEUTRO_node_418679985 phases=1 bus1=node_418679985.4 bus2=node_418679985.0 R=0.5 X=0
New Reactor.NEUTRO_node_418709009 phases=1 bus1=node_418709009.4 bus2=node_418709009.0 R=0.5 X=0
New Reactor.NEUTRO_node_418711721 phases=1 bus1=node_418711721.4 bus2=node_418711721.0 R=0.5 X=0
New Reactor.NEUTRO_node_418712108 phases=1 bus1=node_418712108.4 bus2=node_418712108.0 R=0.5 X=0
New Reactor.NEUTRO_node_418743297 phases=1 bus1=node_418743297.4 bus2=node_418743297.0 R=0.5 X=0
New Reactor.NEUTRO_node_418778548 phases=1 bus1=node_418778548.4 bus2=node_418778548.0 R=0.5 X=0
New Reactor.NEUTRO_node_419159420 phases=1 bus1=node_419159420.4 bus2=node_419159420.0 R=0.5 X=0
New Reactor.NEUTRO_node_419159426 phases=1 bus1=node_419159426.4 bus2=node_419159426.0 R=0.5 X=0
New Reactor.NEUTRO_node_419159432 phases=1 bus1=node_419159432.4 bus2=node_419159432.0 R=0.5 X=0
New Reactor.NEUTRO_node_419159444 phases=1 bus1=node_419159444.4 bus2=node_419159444.0 R=0.5 X=0
New Reactor.NEUTRO_node_419159447 phases=1 bus1=node_419159447.4 bus2=node_419159447.0 R=0.5 X=0
New Reactor.NEUTRO_node_419159450 phases=1 bus1=node_419159450.4 bus2=node_419159450.0 R=0.5 X=0
New Reactor.NEUTRO_node_419159453 phases=1 bus1=node_419159453.4 bus2=node_419159453.0 R=0.5 X=0
New Reactor.NEUTRO_node_419160053 phases=1 bus1=node_419160053.4 bus2=node_419160053.0 R=0.5 X=0
New Reactor.NEUTRO_node_419160056 phases=1 bus1=node_419160056.4 bus2=node_419160056.0 R=0.5 X=0
New Reactor.NEUTRO_node_419160059 phases=1 bus1=node_419160059.4 bus2=node_419160059.0 R=0.5 X=0
New Reactor.NEUTRO_node_419160062 phases=1 bus1=node_419160062.4 bus2=node_419160062.0 R=0.5 X=0
New Reactor.NEUTRO_node_419160068 phases=1 bus1=node_419160068.4 bus2=node_419160068.0 R=0.5 X=0
New Reactor.NEUTRO_node_419160284 phases=1 bus1=node_419160284.4 bus2=node_419160284.0 R=0.5 X=0
New Reactor.NEUTRO_node_419160329 phases=1 bus1=node_419160329.4 bus2=node_419160329.0 R=0.5 X=0
New Reactor.NEUTRO_node_419160335 phases=1 bus1=node_419160335.4 bus2=node_419160335.0 R=0.5 X=0
New Reactor.NEUTRO_node_419160341 phases=1 bus1=node_419160341.4 bus2=node_419160341.0 R=0.5 X=0
New Reactor.NEUTRO_node_419160347 phases=1 bus1=node_419160347.4 bus2=node_419160347.0 R=0.5 X=0
New Reactor.NEUTRO_node_419160350 phases=1 bus1=node_419160350.4 bus2=node_419160350.0 R=0.5 X=0
New Reactor.NEUTRO_node_419160353 phases=1 bus1=node_419160353.4 bus2=node_419160353.0 R=0.5 X=0
New Reactor.NEUTRO_node_419160356 phases=1 bus1=node_419160356.4 bus2=node_419160356.0 R=0.5 X=0
New Reactor.NEUTRO_node_419160368 phases=1 bus1=node_419160368.4 bus2=node_419160368.0 R=0.5 X=0
New Reactor.NEUTRO_node_419160374 phases=1 bus1=node_419160374.4 bus2=node_419160374.0 R=0.5 X=0
New Reactor.NEUTRO_node_419160383 phases=1 bus1=node_419160383.4 bus2=node_419160383.0 R=0.5 X=0
New Reactor.NEUTRO_node_419160392 phases=1 bus1=node_419160392.4 bus2=node_419160392.0 R=0.5 X=0
New Reactor.NEUTRO_node_419160443 phases=1 bus1=node_419160443.4 bus2=node_419160443.0 R=0.5 X=0
New Reactor.NEUTRO_node_419160452 phases=1 bus1=node_419160452.4 bus2=node_419160452.0 R=0.5 X=0
New Reactor.NEUTRO_node_419160464 phases=1 bus1=node_419160464.4 bus2=node_419160464.0 R=0.5 X=0
New Reactor.NEUTRO_node_419160473 phases=1 bus1=node_419160473.4 bus2=node_419160473.0 R=0.5 X=0
New Reactor.NEUTRO_node_419160476 phases=1 bus1=node_419160476.4 bus2=node_419160476.0 R=0.5 X=0
New Reactor.NEUTRO_node_419160641 phases=1 bus1=node_419160641.4 bus2=node_419160641.0 R=0.5 X=0
New Reactor.NEUTRO_node_419160644 phases=1 bus1=node_419160644.4 bus2=node_419160644.0 R=0.5 X=0
New Reactor.NEUTRO_node_419160647 phases=1 bus1=node_419160647.4 bus2=node_419160647.0 R=0.5 X=0
New Reactor.NEUTRO_node_419160650 phases=1 bus1=node_419160650.4 bus2=node_419160650.0 R=0.5 X=0
New Reactor.NEUTRO_node_419160653 phases=1 bus1=node_419160653.4 bus2=node_419160653.0 R=0.5 X=0
New Reactor.NEUTRO_node_419161100 phases=1 bus1=node_419161100.4 bus2=node_419161100.0 R=0.5 X=0
New Reactor.NEUTRO_node_419161103 phases=1 bus1=node_419161103.4 bus2=node_419161103.0 R=0.5 X=0
New Reactor.NEUTRO_node_419161112 phases=1 bus1=node_419161112.4 bus2=node_419161112.0 R=0.5 X=0
New Reactor.NEUTRO_node_419161133 phases=1 bus1=node_419161133.4 bus2=node_419161133.0 R=0.5 X=0
New Reactor.NEUTRO_node_419161145 phases=1 bus1=node_419161145.4 bus2=node_419161145.0 R=0.5 X=0
New Reactor.NEUTRO_node_419161148 phases=1 bus1=node_419161148.4 bus2=node_419161148.0 R=0.5 X=0
New Reactor.NEUTRO_node_419161157 phases=1 bus1=node_419161157.4 bus2=node_419161157.0 R=0.5 X=0
New Reactor.NEUTRO_node_419161472 phases=1 bus1=node_419161472.4 bus2=node_419161472.0 R=0.5 X=0
New Reactor.NEUTRO_node_419161478 phases=1 bus1=node_419161478.4 bus2=node_419161478.0 R=0.5 X=0
New Reactor.NEUTRO_node_419161481 phases=1 bus1=node_419161481.4 bus2=node_419161481.0 R=0.5 X=0
New Reactor.NEUTRO_node_419161484 phases=1 bus1=node_419161484.4 bus2=node_419161484.0 R=0.5 X=0
New Reactor.NEUTRO_node_419161502 phases=1 bus1=node_419161502.4 bus2=node_419161502.0 R=0.5 X=0
New Reactor.NEUTRO_node_419161505 phases=1 bus1=node_419161505.4 bus2=node_419161505.0 R=0.5 X=0
New Reactor.NEUTRO_node_419161517 phases=1 bus1=node_419161517.4 bus2=node_419161517.0 R=0.5 X=0
New Reactor.NEUTRO_node_419161523 phases=1 bus1=node_419161523.4 bus2=node_419161523.0 R=0.5 X=0
New Reactor.NEUTRO_node_419161529 phases=1 bus1=node_419161529.4 bus2=node_419161529.0 R=0.5 X=0
New Reactor.NEUTRO_node_419161541 phases=1 bus1=node_419161541.4 bus2=node_419161541.0 R=0.5 X=0
New Reactor.NEUTRO_node_419161547 phases=1 bus1=node_419161547.4 bus2=node_419161547.0 R=0.5 X=0
New Reactor.NEUTRO_node_419161550 phases=1 bus1=node_419161550.4 bus2=node_419161550.0 R=0.5 X=0
New Reactor.NEUTRO_node_419161553 phases=1 bus1=node_419161553.4 bus2=node_419161553.0 R=0.5 X=0
New Reactor.NEUTRO_node_419161556 phases=1 bus1=node_419161556.4 bus2=node_419161556.0 R=0.5 X=0
New Reactor.NEUTRO_node_419161586 phases=1 bus1=node_419161586.4 bus2=node_419161586.0 R=0.5 X=0
New Reactor.NEUTRO_node_419161766 phases=1 bus1=node_419161766.4 bus2=node_419161766.0 R=0.5 X=0
New Reactor.NEUTRO_node_419161769 phases=1 bus1=node_419161769.4 bus2=node_419161769.0 R=0.5 X=0
New Reactor.NEUTRO_node_419161784 phases=1 bus1=node_419161784.4 bus2=node_419161784.0 R=0.5 X=0
New Reactor.NEUTRO_node_419161787 phases=1 bus1=node_419161787.4 bus2=node_419161787.0 R=0.5 X=0
New Reactor.NEUTRO_node_419161817 phases=1 bus1=node_419161817.4 bus2=node_419161817.0 R=0.5 X=0
New Reactor.NEUTRO_node_419161862 phases=1 bus1=node_419161862.4 bus2=node_419161862.0 R=0.5 X=0
New Reactor.NEUTRO_node_419162261 phases=1 bus1=node_419162261.4 bus2=node_419162261.0 R=0.5 X=0
New Reactor.NEUTRO_node_419162264 phases=1 bus1=node_419162264.4 bus2=node_419162264.0 R=0.5 X=0
New Reactor.NEUTRO_node_419162267 phases=1 bus1=node_419162267.4 bus2=node_419162267.0 R=0.5 X=0
New Reactor.NEUTRO_node_419162285 phases=1 bus1=node_419162285.4 bus2=node_419162285.0 R=0.5 X=0
New Reactor.NEUTRO_node_419162300 phases=1 bus1=node_419162300.4 bus2=node_419162300.0 R=0.5 X=0
New Reactor.NEUTRO_node_419162312 phases=1 bus1=node_419162312.4 bus2=node_419162312.0 R=0.5 X=0
New Reactor.NEUTRO_node_419162426 phases=1 bus1=node_419162426.4 bus2=node_419162426.0 R=0.5 X=0
New Reactor.NEUTRO_node_419162429 phases=1 bus1=node_419162429.4 bus2=node_419162429.0 R=0.5 X=0
New Reactor.NEUTRO_node_419162432 phases=1 bus1=node_419162432.4 bus2=node_419162432.0 R=0.5 X=0
New Reactor.NEUTRO_node_419162441 phases=1 bus1=node_419162441.4 bus2=node_419162441.0 R=0.5 X=0
New Reactor.NEUTRO_node_419162462 phases=1 bus1=node_419162462.4 bus2=node_419162462.0 R=0.5 X=0
New Reactor.NEUTRO_node_419162471 phases=1 bus1=node_419162471.4 bus2=node_419162471.0 R=0.5 X=0
New Reactor.NEUTRO_node_419162501 phases=1 bus1=node_419162501.4 bus2=node_419162501.0 R=0.5 X=0
New Reactor.NEUTRO_node_419162504 phases=1 bus1=node_419162504.4 bus2=node_419162504.0 R=0.5 X=0
New Reactor.NEUTRO_node_419162516 phases=1 bus1=node_419162516.4 bus2=node_419162516.0 R=0.5 X=0
New Reactor.NEUTRO_node_419162609 phases=1 bus1=node_419162609.4 bus2=node_419162609.0 R=0.5 X=0
New Reactor.NEUTRO_node_419162729 phases=1 bus1=node_419162729.4 bus2=node_419162729.0 R=0.5 X=0
New Reactor.NEUTRO_node_419162732 phases=1 bus1=node_419162732.4 bus2=node_419162732.0 R=0.5 X=0
New Reactor.NEUTRO_node_419162738 phases=1 bus1=node_419162738.4 bus2=node_419162738.0 R=0.5 X=0
New Reactor.NEUTRO_node_419162741 phases=1 bus1=node_419162741.4 bus2=node_419162741.0 R=0.5 X=0
New Reactor.NEUTRO_node_419162744 phases=1 bus1=node_419162744.4 bus2=node_419162744.0 R=0.5 X=0
New Reactor.NEUTRO_node_419162747 phases=1 bus1=node_419162747.4 bus2=node_419162747.0 R=0.5 X=0
New Reactor.NEUTRO_node_419162750 phases=1 bus1=node_419162750.4 bus2=node_419162750.0 R=0.5 X=0
New Reactor.NEUTRO_node_419162756 phases=1 bus1=node_419162756.4 bus2=node_419162756.0 R=0.5 X=0
New Reactor.NEUTRO_node_419162768 phases=1 bus1=node_419162768.4 bus2=node_419162768.0 R=0.5 X=0
New Reactor.NEUTRO_node_419162780 phases=1 bus1=node_419162780.4 bus2=node_419162780.0 R=0.5 X=0
New Reactor.NEUTRO_node_419162879 phases=1 bus1=node_419162879.4 bus2=node_419162879.0 R=0.5 X=0
New Reactor.NEUTRO_node_419162930 phases=1 bus1=node_419162930.4 bus2=node_419162930.0 R=0.5 X=0
New Reactor.NEUTRO_node_419162954 phases=1 bus1=node_419162954.4 bus2=node_419162954.0 R=0.5 X=0
New Reactor.NEUTRO_node_419162975 phases=1 bus1=node_419162975.4 bus2=node_419162975.0 R=0.5 X=0
New Reactor.NEUTRO_node_419162978 phases=1 bus1=node_419162978.4 bus2=node_419162978.0 R=0.5 X=0
New Reactor.NEUTRO_node_419162999 phases=1 bus1=node_419162999.4 bus2=node_419162999.0 R=0.5 X=0
New Reactor.NEUTRO_node_419163026 phases=1 bus1=node_419163026.4 bus2=node_419163026.0 R=0.5 X=0
New Reactor.NEUTRO_node_419163041 phases=1 bus1=node_419163041.4 bus2=node_419163041.0 R=0.5 X=0
New Reactor.NEUTRO_node_419163059 phases=1 bus1=node_419163059.4 bus2=node_419163059.0 R=0.5 X=0
New Reactor.NEUTRO_node_419163092 phases=1 bus1=node_419163092.4 bus2=node_419163092.0 R=0.5 X=0
New Reactor.NEUTRO_node_419193885 phases=1 bus1=node_419193885.4 bus2=node_419193885.0 R=0.5 X=0
New Reactor.NEUTRO_node_419193924 phases=1 bus1=node_419193924.4 bus2=node_419193924.0 R=0.5 X=0
New Reactor.NEUTRO_node_419193996 phases=1 bus1=node_419193996.4 bus2=node_419193996.0 R=0.5 X=0
New Reactor.NEUTRO_node_419194032 phases=1 bus1=node_419194032.4 bus2=node_419194032.0 R=0.5 X=0
New Reactor.NEUTRO_node_419194035 phases=1 bus1=node_419194035.4 bus2=node_419194035.0 R=0.5 X=0
New Reactor.NEUTRO_node_419194110 phases=1 bus1=node_419194110.4 bus2=node_419194110.0 R=0.5 X=0
New Reactor.NEUTRO_node_419194137 phases=1 bus1=node_419194137.4 bus2=node_419194137.0 R=0.5 X=0
New Reactor.NEUTRO_node_419194179 phases=1 bus1=node_419194179.4 bus2=node_419194179.0 R=0.5 X=0
New Reactor.NEUTRO_node_419194185 phases=1 bus1=node_419194185.4 bus2=node_419194185.0 R=0.5 X=0
New Reactor.NEUTRO_node_419194206 phases=1 bus1=node_419194206.4 bus2=node_419194206.0 R=0.5 X=0
New Reactor.NEUTRO_node_419194221 phases=1 bus1=node_419194221.4 bus2=node_419194221.0 R=0.5 X=0
New Reactor.NEUTRO_node_419194248 phases=1 bus1=node_419194248.4 bus2=node_419194248.0 R=0.5 X=0
New Reactor.NEUTRO_node_419194257 phases=1 bus1=node_419194257.4 bus2=node_419194257.0 R=0.5 X=0
New Reactor.NEUTRO_node_419194347 phases=1 bus1=node_419194347.4 bus2=node_419194347.0 R=0.5 X=0
New Reactor.NEUTRO_node_419194353 phases=1 bus1=node_419194353.4 bus2=node_419194353.0 R=0.5 X=0
New Reactor.NEUTRO_node_419194380 phases=1 bus1=node_419194380.4 bus2=node_419194380.0 R=0.5 X=0
New Reactor.NEUTRO_node_419194491 phases=1 bus1=node_419194491.4 bus2=node_419194491.0 R=0.5 X=0
New Reactor.NEUTRO_node_419194509 phases=1 bus1=node_419194509.4 bus2=node_419194509.0 R=0.5 X=0
New Reactor.NEUTRO_node_419194578 phases=1 bus1=node_419194578.4 bus2=node_419194578.0 R=0.5 X=0
New Reactor.NEUTRO_node_419194581 phases=1 bus1=node_419194581.4 bus2=node_419194581.0 R=0.5 X=0
New Reactor.NEUTRO_node_419194590 phases=1 bus1=node_419194590.4 bus2=node_419194590.0 R=0.5 X=0
New Reactor.NEUTRO_node_419194602 phases=1 bus1=node_419194602.4 bus2=node_419194602.0 R=0.5 X=0
New Reactor.NEUTRO_node_419194611 phases=1 bus1=node_419194611.4 bus2=node_419194611.0 R=0.5 X=0
New Reactor.NEUTRO_node_419194626 phases=1 bus1=node_419194626.4 bus2=node_419194626.0 R=0.5 X=0
New Reactor.NEUTRO_node_419194659 phases=1 bus1=node_419194659.4 bus2=node_419194659.0 R=0.5 X=0
New Reactor.NEUTRO_node_419194674 phases=1 bus1=node_419194674.4 bus2=node_419194674.0 R=0.5 X=0
New Reactor.NEUTRO_node_419194689 phases=1 bus1=node_419194689.4 bus2=node_419194689.0 R=0.5 X=0
New Reactor.NEUTRO_node_419194716 phases=1 bus1=node_419194716.4 bus2=node_419194716.0 R=0.5 X=0
New Reactor.NEUTRO_node_419194722 phases=1 bus1=node_419194722.4 bus2=node_419194722.0 R=0.5 X=0
New Reactor.NEUTRO_node_419194725 phases=1 bus1=node_419194725.4 bus2=node_419194725.0 R=0.5 X=0
New Reactor.NEUTRO_node_419194728 phases=1 bus1=node_419194728.4 bus2=node_419194728.0 R=0.5 X=0
New Reactor.NEUTRO_node_419195259 phases=1 bus1=node_419195259.4 bus2=node_419195259.0 R=0.5 X=0
New Reactor.NEUTRO_node_419195361 phases=1 bus1=node_419195361.4 bus2=node_419195361.0 R=0.5 X=0
New Reactor.NEUTRO_node_419195538 phases=1 bus1=node_419195538.4 bus2=node_419195538.0 R=0.5 X=0
New Reactor.NEUTRO_node_419195547 phases=1 bus1=node_419195547.4 bus2=node_419195547.0 R=0.5 X=0
New Reactor.NEUTRO_node_419195559 phases=1 bus1=node_419195559.4 bus2=node_419195559.0 R=0.5 X=0
New Reactor.NEUTRO_node_419195700 phases=1 bus1=node_419195700.4 bus2=node_419195700.0 R=0.5 X=0
New Reactor.NEUTRO_node_419196525 phases=1 bus1=node_419196525.4 bus2=node_419196525.0 R=0.5 X=0
New Reactor.NEUTRO_node_419196594 phases=1 bus1=node_419196594.4 bus2=node_419196594.0 R=0.5 X=0
New Reactor.NEUTRO_node_419196615 phases=1 bus1=node_419196615.4 bus2=node_419196615.0 R=0.5 X=0
New Reactor.NEUTRO_node_419218942 phases=1 bus1=node_419218942.4 bus2=node_419218942.0 R=0.5 X=0
New Reactor.NEUTRO_node_419218981 phases=1 bus1=node_419218981.4 bus2=node_419218981.0 R=0.5 X=0
New Reactor.NEUTRO_node_419218984 phases=1 bus1=node_419218984.4 bus2=node_419218984.0 R=0.5 X=0
New Reactor.NEUTRO_node_419219707 phases=1 bus1=node_419219707.4 bus2=node_419219707.0 R=0.5 X=0
New Reactor.NEUTRO_node_419219932 phases=1 bus1=node_419219932.4 bus2=node_419219932.0 R=0.5 X=0
New Reactor.NEUTRO_node_419219935 phases=1 bus1=node_419219935.4 bus2=node_419219935.0 R=0.5 X=0
New Reactor.NEUTRO_node_419263244 phases=1 bus1=node_419263244.4 bus2=node_419263244.0 R=0.5 X=0
New Reactor.NEUTRO_node_419264348 phases=1 bus1=node_419264348.4 bus2=node_419264348.0 R=0.5 X=0
New Reactor.NEUTRO_node_419264621 phases=1 bus1=node_419264621.4 bus2=node_419264621.0 R=0.5 X=0
New Reactor.NEUTRO_node_419264627 phases=1 bus1=node_419264627.4 bus2=node_419264627.0 R=0.5 X=0
New Reactor.NEUTRO_node_419264639 phases=1 bus1=node_419264639.4 bus2=node_419264639.0 R=0.5 X=0
New Reactor.NEUTRO_node_419264669 phases=1 bus1=node_419264669.4 bus2=node_419264669.0 R=0.5 X=0
New Reactor.NEUTRO_node_419265158 phases=1 bus1=node_419265158.4 bus2=node_419265158.0 R=0.5 X=0
New Reactor.NEUTRO_node_419265683 phases=1 bus1=node_419265683.4 bus2=node_419265683.0 R=0.5 X=0
New Reactor.NEUTRO_node_419265776 phases=1 bus1=node_419265776.4 bus2=node_419265776.0 R=0.5 X=0
New Reactor.NEUTRO_node_419265779 phases=1 bus1=node_419265779.4 bus2=node_419265779.0 R=0.5 X=0
New Reactor.NEUTRO_node_419300764 phases=1 bus1=node_419300764.4 bus2=node_419300764.0 R=0.5 X=0
New Reactor.NEUTRO_node_419304517 phases=1 bus1=node_419304517.4 bus2=node_419304517.0 R=0.5 X=0
New Reactor.NEUTRO_node_419338100 phases=1 bus1=node_419338100.4 bus2=node_419338100.0 R=0.5 X=0
New Reactor.NEUTRO_node_419370165 phases=1 bus1=node_419370165.4 bus2=node_419370165.0 R=0.5 X=0
New Reactor.NEUTRO_node_419370801 phases=1 bus1=node_419370801.4 bus2=node_419370801.0 R=0.5 X=0
New Reactor.NEUTRO_node_419372076 phases=1 bus1=node_419372076.4 bus2=node_419372076.0 R=0.5 X=0
New Reactor.NEUTRO_node_419372502 phases=1 bus1=node_419372502.4 bus2=node_419372502.0 R=0.5 X=0
New Reactor.NEUTRO_node_419372802 phases=1 bus1=node_419372802.4 bus2=node_419372802.0 R=0.5 X=0
New Reactor.NEUTRO_node_419372808 phases=1 bus1=node_419372808.4 bus2=node_419372808.0 R=0.5 X=0
New Reactor.NEUTRO_node_419373264 phases=1 bus1=node_419373264.4 bus2=node_419373264.0 R=0.5 X=0
New Reactor.NEUTRO_node_419440922 phases=1 bus1=node_419440922.4 bus2=node_419440922.0 R=0.5 X=0
New Reactor.NEUTRO_node_419474010 phases=1 bus1=node_419474010.4 bus2=node_419474010.0 R=0.5 X=0
New Reactor.NEUTRO_node_419780418 phases=1 bus1=node_419780418.4 bus2=node_419780418.0 R=0.5 X=0
New Reactor.NEUTRO_node_419889812 phases=1 bus1=node_419889812.4 bus2=node_419889812.0 R=0.5 X=0
New Reactor.NEUTRO_node_419892623 phases=1 bus1=node_419892623.4 bus2=node_419892623.0 R=0.5 X=0
New Reactor.NEUTRO_node_419892656 phases=1 bus1=node_419892656.4 bus2=node_419892656.0 R=0.5 X=0
New Reactor.NEUTRO_node_419959846 phases=1 bus1=node_419959846.4 bus2=node_419959846.0 R=0.5 X=0
New Reactor.NEUTRO_node_419961139 phases=1 bus1=node_419961139.4 bus2=node_419961139.0 R=0.5 X=0
New Reactor.NEUTRO_node_420031258 phases=1 bus1=node_420031258.4 bus2=node_420031258.0 R=0.5 X=0
New Reactor.NEUTRO_node_420038347 phases=1 bus1=node_420038347.4 bus2=node_420038347.0 R=0.5 X=0
New Reactor.NEUTRO_node_420073208 phases=1 bus1=node_420073208.4 bus2=node_420073208.0 R=0.5 X=0
New Reactor.NEUTRO_node_420108163 phases=1 bus1=node_420108163.4 bus2=node_420108163.0 R=0.5 X=0
New Reactor.NEUTRO_node_420142959 phases=1 bus1=node_420142959.4 bus2=node_420142959.0 R=0.5 X=0
New Reactor.NEUTRO_node_420938271 phases=1 bus1=node_420938271.4 bus2=node_420938271.0 R=0.5 X=0
New Reactor.NEUTRO_node_420938724 phases=1 bus1=node_420938724.4 bus2=node_420938724.0 R=0.5 X=0
New Reactor.NEUTRO_node_420940650 phases=1 bus1=node_420940650.4 bus2=node_420940650.0 R=0.5 X=0
New Reactor.NEUTRO_node_420972301 phases=1 bus1=node_420972301.4 bus2=node_420972301.0 R=0.5 X=0
New Reactor.NEUTRO_node_420972349 phases=1 bus1=node_420972349.4 bus2=node_420972349.0 R=0.5 X=0
New Reactor.NEUTRO_node_420972352 phases=1 bus1=node_420972352.4 bus2=node_420972352.0 R=0.5 X=0
New Reactor.NEUTRO_node_420972358 phases=1 bus1=node_420972358.4 bus2=node_420972358.0 R=0.5 X=0
New Reactor.NEUTRO_node_420972538 phases=1 bus1=node_420972538.4 bus2=node_420972538.0 R=0.5 X=0
New Reactor.NEUTRO_node_420972715 phases=1 bus1=node_420972715.4 bus2=node_420972715.0 R=0.5 X=0
New Reactor.NEUTRO_node_420972787 phases=1 bus1=node_420972787.4 bus2=node_420972787.0 R=0.5 X=0
New Reactor.NEUTRO_node_420972793 phases=1 bus1=node_420972793.4 bus2=node_420972793.0 R=0.5 X=0
New Reactor.NEUTRO_node_420972844 phases=1 bus1=node_420972844.4 bus2=node_420972844.0 R=0.5 X=0
New Reactor.NEUTRO_node_420972850 phases=1 bus1=node_420972850.4 bus2=node_420972850.0 R=0.5 X=0
New Reactor.NEUTRO_node_420972853 phases=1 bus1=node_420972853.4 bus2=node_420972853.0 R=0.5 X=0
New Reactor.NEUTRO_node_420972874 phases=1 bus1=node_420972874.4 bus2=node_420972874.0 R=0.5 X=0
New Reactor.NEUTRO_node_420972886 phases=1 bus1=node_420972886.4 bus2=node_420972886.0 R=0.5 X=0
New Reactor.NEUTRO_node_420972916 phases=1 bus1=node_420972916.4 bus2=node_420972916.0 R=0.5 X=0
New Reactor.NEUTRO_node_420972919 phases=1 bus1=node_420972919.4 bus2=node_420972919.0 R=0.5 X=0
New Reactor.NEUTRO_node_453763649 phases=1 bus1=node_453763649.4 bus2=node_453763649.0 R=0.5 X=0
New Reactor.NEUTRO_node_461229734 phases=1 bus1=node_461229734.4 bus2=node_461229734.0 R=0.5 X=0
New Reactor.NEUTRO_node_461844351 phases=1 bus1=node_461844351.4 bus2=node_461844351.0 R=0.5 X=0
New Reactor.NEUTRO_node_462887582 phases=1 bus1=node_462887582.4 bus2=node_462887582.0 R=0.5 X=0
New Reactor.NEUTRO_node_472790849 phases=1 bus1=node_472790849.4 bus2=node_472790849.0 R=0.5 X=0
New Reactor.NEUTRO_node_472813819 phases=1 bus1=node_472813819.4 bus2=node_472813819.0 R=0.5 X=0
New Reactor.NEUTRO_node_472814629 phases=1 bus1=node_472814629.4 bus2=node_472814629.0 R=0.5 X=0
New Reactor.NEUTRO_node_472816334 phases=1 bus1=node_472816334.4 bus2=node_472816334.0 R=0.5 X=0
New Reactor.NEUTRO_node_515220035 phases=1 bus1=node_515220035.4 bus2=node_515220035.0 R=0.5 X=0
New Reactor.NEUTRO_node_515220845 phases=1 bus1=node_515220845.4 bus2=node_515220845.0 R=0.5 X=0
New Reactor.NEUTRO_node_515417172 phases=1 bus1=node_515417172.4 bus2=node_515417172.0 R=0.5 X=0
New Reactor.NEUTRO_node_515448315 phases=1 bus1=node_515448315.4 bus2=node_515448315.0 R=0.5 X=0
New Reactor.NEUTRO_node_515511902 phases=1 bus1=node_515511902.4 bus2=node_515511902.0 R=0.5 X=0
New Reactor.NEUTRO_node_811042171 phases=1 bus1=node_811042171.4 bus2=node_811042171.0 R=0.5 X=0
New Reactor.NEUTRO_node_811042229 phases=1 bus1=node_811042229.4 bus2=node_811042229.0 R=0.5 X=0
New Reactor.NEUTRO_node_851637677 phases=1 bus1=node_851637677.4 bus2=node_851637677.0 R=0.5 X=0
New Reactor.NEUTRO_node_904848906 phases=1 bus1=node_904848906.4 bus2=node_904848906.0 R=0.5 X=0
